Circuit: * I:\Design_Task_2019E152\2nd order system.asc

Direct Newton iteration for .op point succeeded.

Date: Tue Nov 15 11:48:02 2022
Total elapsed time: 0.114 seconds.

tnom = 27
temp = 27
method = modified trap
totiter = 2089
traniter = 2075
tranpoints = 1037
accept = 1036
rejected = 1
matrix size = 13
fillins = 9
solver = Normal
Matrix Compiler1: 1.04 KB object code size  0.2/0.1/[0.1]
Matrix Compiler2: off  [0.1]/0.1/0.2

