Circuit: * I:\Design_Task_2019E152\P_Controller.asc

Early termination of direct N-R iteration.
Direct Newton iteration failed to find .op point.  (Use ".option noopiter" to skip.)
Starting Gmin stepping
Gmin = 10
Gmin = 1.07374
Gmin = 0.115292
Gmin = 0.0123794
Gmin = 0.00132923
Gmin = 0.000142725
Gmin = 1.5325e-005
Gmin = 1.6455e-006
Gmin = 1.76685e-007
Gmin = 1.89714e-008
Gmin = 2.03704e-009
Gmin = 2.18725e-010
Gmin = 2.34854e-011
Gmin = 2.52173e-012
Gmin = 2.70769e-013
Gmin = 0
Gmin stepping succeeded in finding the operating point.


Date: Tue Nov 15 11:58:06 2022
Total elapsed time: 0.934 seconds.

tnom = 27
temp = 27
method = modified trap
totiter = 32826
traniter = 32527
tranpoints = 14112
accept = 11819
rejected = 2293
matrix size = 82
fillins = 103
solver = Normal
Thread vector: 24.7/13.7[7] 9.8/4.3[7] 11.1/4.1[7] 0.4/1.9[1]  2592/500
Matrix Compiler1: 9.52 KB object code size  3.5/1.7/[0.9]
Matrix Compiler2: 9.55 KB object code size  1.8/4.1/[0.6]

