Circuit: * I:\Design_Task_2019E152\PD_Controller.asc

Early termination of direct N-R iteration.
Direct Newton iteration failed to find .op point.  (Use ".option noopiter" to skip.)
Starting Gmin stepping
Gmin = 10
Gmin = 1.07374
Gmin = 0.115292
Gmin = 0.0123794
Gmin = 0.00132923
Gmin = 0.000142725
Gmin = 1.5325e-005
Gmin = 1.6455e-006
Gmin = 1.76685e-007
Gmin = 1.89714e-008
Gmin = 2.03704e-009
Gmin = 2.18725e-010
Gmin = 2.34854e-011
Gmin = 2.52173e-012
Gmin = 2.70769e-013
Gmin = 0
Gmin stepping succeeded in finding the operating point.


Date: Tue Nov 15 11:52:37 2022
Total elapsed time: 1.062 seconds.

tnom = 27
temp = 27
method = modified trap
totiter = 33006
traniter = 32707
tranpoints = 14165
accept = 11857
rejected = 2308
matrix size = 91
fillins = 120
solver = Normal
Thread vector: 20.9/13.3[8] 11.2/4.3[8] 8.2/3.1[8] 0.4/10.7[1]  2592/500
Matrix Compiler1: 10.99 KB object code size  4.3/1.6/[1.1]
Matrix Compiler2: 10.76 KB object code size  1.2/2.5/[0.5]

