Circuit: * I:\Design_Task_2019E152\PI_Controller.asc

Early termination of direct N-R iteration.
Direct Newton iteration failed to find .op point.  (Use ".option noopiter" to skip.)
Starting Gmin stepping
Gmin = 10
Gmin = 1.07374
Gmin = 0.115292
Gmin = 0.0123794
Gmin = 0.00132923
Gmin = 0.000142725
Gmin = 1.5325e-005
Gmin = 1.6455e-006
Gmin = 1.76685e-007
Gmin = 1.89714e-008
Gmin = 2.03704e-009
Gmin = 2.18725e-010
Gmin = 2.34854e-011
Gmin = 2.52173e-012
Gmin = 2.70769e-013
Gmin = 0
Gmin stepping succeeded in finding the operating point.


Date: Tue Nov 15 11:51:26 2022
Total elapsed time: 1.091 seconds.

tnom = 27
temp = 27
method = modified trap
totiter = 32817
traniter = 32518
tranpoints = 14122
accept = 11823
rejected = 2299
matrix size = 91
fillins = 159
solver = Normal
Thread vector: 31.5/14.5[8] 8.8/6.0[8] 10.5/7.0[8] 0.4/1.5[1]  2592/500
Matrix Compiler1: 14.35 KB object code size  4.4/2.2/[1.3]
Matrix Compiler2: 11.42 KB object code size  2.0/3.3/[0.6]

