Circuit: * I:\Design_Task_2019E152\PID_Controller.asc

Early termination of direct N-R iteration.
Direct Newton iteration failed to find .op point.  (Use ".option noopiter" to skip.)
Starting Gmin stepping
Gmin = 10
Gmin = 1.07374
Gmin = 0.115292
Gmin = 0.0123794
Gmin = 0.00132923
Gmin = 0.000142725
Gmin = 1.5325e-005
Gmin = 1.6455e-006
Gmin = 1.76685e-007
Gmin = 1.89714e-008
Gmin = 2.03704e-009
Gmin = 2.18725e-010
Gmin = 2.34854e-011
Gmin = 2.52173e-012
Gmin = 2.70769e-013
Gmin = 0
Gmin stepping succeeded in finding the operating point.


Date: Tue Nov 15 11:24:33 2022
Total elapsed time: 3.070 seconds.

tnom = 27
temp = 27
method = modified trap
totiter = 108268
traniter = 107969
tranpoints = 39122
accept = 28046
rejected = 11076
matrix size = 76
fillins = 134
solver = Normal
Thread vector: 46.8/14.9[7] 11.5/4.9[7] 8.8/3.4[7] 0.5/3.5[1]  2592/500
Matrix Compiler1: 11.65 KB object code size  4.6/2.1/[1.1]
Matrix Compiler2: 9.70 KB object code size  1.8/5.3/[0.6]

